Version 4
SHEET 1 2268 1344
WIRE 1312 16 1296 16
WIRE 1392 16 1312 16
WIRE 1536 16 1392 16
WIRE 1392 32 1392 16
WIRE 1536 112 1536 96
WIRE 1472 160 1392 160
WIRE 608 176 608 160
WIRE 1392 208 1392 160
WIRE 672 240 640 240
WIRE 784 240 736 240
WIRE 1536 240 1536 208
WIRE 1536 240 1472 240
WIRE 1648 240 1536 240
WIRE 1664 240 1648 240
WIRE 208 256 112 256
WIRE 304 256 208 256
WIRE 448 256 368 256
WIRE 512 256 448 256
WIRE 576 256 512 256
WIRE 1264 256 1232 256
WIRE 1296 256 1264 256
WIRE 512 272 512 256
WIRE 576 272 576 256
WIRE 672 272 576 272
WIRE 864 272 736 272
WIRE 1168 272 1040 272
WIRE 448 288 448 256
WIRE 512 288 512 272
WIRE 864 288 864 272
WIRE 1280 288 1232 288
WIRE 1296 288 1280 288
WIRE 608 304 608 176
WIRE 672 304 608 304
WIRE 784 304 736 304
WIRE 1168 304 1120 304
WIRE 1392 304 1392 288
WIRE 784 320 784 304
WIRE 1248 320 1232 320
WIRE 1472 336 1472 240
WIRE 864 352 864 288
WIRE 1040 352 1040 272
WIRE 1040 352 864 352
WIRE 640 384 640 240
WIRE 1120 384 1120 304
WIRE 1248 384 1248 320
WIRE 1248 384 1120 384
WIRE 1296 384 1248 384
WIRE 1408 384 1376 384
WIRE 448 400 448 352
WIRE 512 400 512 368
WIRE 512 400 448 400
WIRE 1472 480 1472 432
WIRE 864 784 864 352
WIRE 864 784 784 784
WIRE 944 848 912 848
WIRE 976 848 944 848
WIRE 784 864 784 784
WIRE 848 864 784 864
WIRE 1856 864 1840 864
WIRE 1936 864 1856 864
WIRE 2080 864 1936 864
WIRE 960 880 912 880
WIRE 976 880 960 880
WIRE 1936 880 1936 864
WIRE 848 896 800 896
WIRE 928 912 912 912
WIRE 1504 928 1504 912
WIRE 2080 960 2080 944
WIRE 800 976 800 896
WIRE 928 976 928 912
WIRE 928 976 800 976
WIRE 976 976 928 976
WIRE 1072 976 976 976
WIRE 1072 992 1072 976
WIRE 1200 992 1152 992
WIRE 1568 992 1536 992
WIRE 1680 992 1632 992
WIRE 2016 1008 1936 1008
WIRE 1200 1024 1200 992
WIRE 1296 1024 1200 1024
WIRE 1568 1024 1296 1024
WIRE 1760 1024 1760 864
WIRE 1760 1024 1632 1024
WIRE 1824 1024 1760 1024
WIRE 1200 1040 1200 1024
WIRE 1504 1056 1504 928
WIRE 1568 1056 1504 1056
WIRE 1680 1056 1632 1056
WIRE 1936 1056 1936 1008
WIRE 1680 1072 1680 1056
WIRE 2080 1088 2080 1056
WIRE 2080 1088 2016 1088
WIRE 2192 1088 2080 1088
WIRE 2208 1088 2192 1088
WIRE 1536 1136 1536 992
WIRE 1936 1152 1936 1136
WIRE 2016 1184 2016 1088
WIRE 1824 1232 1824 1024
WIRE 1840 1232 1824 1232
WIRE 1952 1232 1920 1232
WIRE 2016 1328 2016 1280
FLAG 512 480 0
FLAG 512 272 Vout
FLAG 208 256 NTSC
FLAG 608 176 VS+
FLAG 640 464 0
FLAG 784 320 0
FLAG 784 240 VS-
FLAG 864 192 VS+
FLAG 1392 304 0
FLAG 1536 304 0
FLAG 1648 240 Vhoriz
FLAG 864 288 Vsync
FLAG 1312 16 VS+
FLAG 1200 1104 0
FLAG 1296 1024 Vint
FLAG 944 848 VS++
FLAG 976 976 Vbuff
FLAG 960 880 VS__
FLAG 1264 256 VS++
FLAG 1280 288 VS__
FLAG 1936 1152 0
FLAG 2080 1152 0
FLAG 2192 1088 Vvert
FLAG 2016 1328 0
FLAG 1856 864 VS+
FLAG 1504 928 VS+
FLAG 1536 1216 0
FLAG 1680 1072 0
FLAG 1680 992 VS-
FLAG 1472 480 0
SYMBOL cap 368 240 R90
WINDOW 0 0 32 VBottom 2
WINDOW 3 32 32 VTop 2
SYMATTR InstName C1
SYMATTR Value 1µ
SYMBOL res 496 272 R0
SYMATTR InstName R1
SYMATTR Value 1000k
SYMBOL diode 464 352 R180
WINDOW 0 24 64 Left 2
WINDOW 3 24 0 Left 2
SYMATTR InstName D1
SYMBOL VIDEO_NTSC 80 256 R0
SYMATTR InstName U1
SYMBOL voltage 512 384 R0
SYMATTR InstName V1
SYMATTR Value 0.4
SYMBOL LM311 704 272 R0
SYMATTR InstName U2
SYMBOL voltage 640 368 R0
SYMATTR InstName V2
SYMATTR Value 0.2
SYMBOL res 848 176 R0
SYMATTR InstName R2
SYMATTR Value 1k
SYMBOL pnp 1472 208 M180
SYMATTR InstName Q1
SYMBOL res 1520 0 R0
SYMATTR InstName R3
SYMATTR Value 2.2k
SYMBOL res 1376 192 R0
SYMATTR InstName R4
SYMATTR Value 100
SYMBOL diode 1376 96 R0
SYMATTR InstName D2
SYMBOL diode 1376 32 R0
SYMATTR InstName D3
SYMBOL cap 1520 240 R0
SYMATTR InstName C2
SYMATTR Value 0.01µ Ic=0
SYMBOL npn 1408 336 R0
SYMATTR InstName Q2
SYMBOL res 1392 368 R90
WINDOW 0 0 56 VBottom 2
WINDOW 3 32 56 VTop 2
SYMATTR InstName R5
SYMATTR Value 10k
SYMBOL res 1168 976 R90
WINDOW 0 0 56 VBottom 2
WINDOW 3 32 56 VTop 2
SYMATTR InstName R6
SYMATTR Value 500
SYMBOL cap 1184 1040 R0
SYMATTR InstName C3
SYMATTR Value 0.01µ Ic=0
SYMBOL LF411C 880 880 R0
SYMATTR InstName U3
SYMBOL LF411C 1200 288 R0
SYMATTR InstName U4
SYMBOL pnp 2016 1056 M180
SYMATTR InstName Q3
SYMBOL res 2064 848 R0
SYMATTR InstName R7
SYMATTR Value 2.2k
SYMBOL res 1920 1040 R0
SYMATTR InstName R8
SYMATTR Value 100
SYMBOL diode 1920 944 R0
SYMATTR InstName D4
SYMBOL diode 1920 880 R0
SYMATTR InstName D5
SYMBOL cap 2064 1088 R0
SYMATTR InstName C4
SYMATTR Value 0.01µ Ic=0
SYMBOL npn 1952 1184 R0
SYMATTR InstName Q4
SYMBOL res 1936 1216 R90
WINDOW 0 0 56 VBottom 2
WINDOW 3 32 56 VTop 2
SYMATTR InstName R9
SYMATTR Value 10k
SYMBOL LM311 1600 1024 R0
SYMATTR InstName U5
SYMBOL voltage 1536 1120 R0
SYMATTR InstName V3
SYMATTR Value 3
SYMBOL res 1856 848 R90
WINDOW 0 0 56 VBottom 2
WINDOW 3 32 56 VTop 2
SYMATTR InstName R10
SYMATTR Value 1k
TEXT 200 176 Left 2 !.tran 0 0.2m
TEXT 528 64 Left 2 !V98 VS+ 0 5
TEXT 528 96 Left 2 !V99 VS- 0 -5
TEXT 528 24 Left 2 !V97 VS++ 15
TEXT 536 -8 Left 2 !V96 VS__ -15
